<?xml version="1.0" encoding="UTF-8"?>

<!-- generated on Wed 18 May 2022 01:53:11 PM CDT by Eclipse SUMO netedit Version 1.6.0
<configuration xmlns:xsi="http://www.w3.org/2001/XMLSchema-instance" xsi:noNamespaceSchemaLocation="http://sumo.dlr.de/xsd/netconvertConfiguration.xsd">

    <input>
        <sumo-net-file value="modified-multilane-i696-three-merges.net.xml"/>
    </input>

    <output>
        <output-file value="modified-multilane-i696-three-merges.net.xml"/>
        <output.street-names value="true"/>
    </output>

    <processing>
        <geometry.min-radius.fix.railways value="false"/>
        <geometry.max-grade.fix value="false"/>
        <offset.disable-normalization value="true"/>
        <lefthand value="false"/>
    </processing>

    <junctions>
        <no-turnarounds value="true"/>
        <junctions.corner-detail value="5"/>
        <junctions.limit-turn-speed value="5.5"/>
        <rectangular-lane-cut value="false"/>
    </junctions>

    <pedestrian>
        <walkingareas value="false"/>
    </pedestrian>

    <report>
        <aggregate-warnings value="5"/>
    </report>

</configuration>
-->

<net version="1.6" junctionCornerDetail="5" limitTurnSpeed="5.50" xmlns:xsi="http://www.w3.org/2001/XMLSchema-instance" xsi:noNamespaceSchemaLocation="http://sumo.dlr.de/xsd/net_file.xsd">

    <location netOffset="-291727.60,-4702987.13" convBoundary="2250.75,1601.01,9564.91,4453.64" origBoundary="-83.535679,42.452940,-83.398128,42.524242" projParameter="+proj=utm +zone=17 +ellps=WGS84 +datum=WGS84 +units=m +no_defs"/>

    <type id="highway.bridleway" priority="1" numLanes="1" speed="2.78" allow="pedestrian" oneway="1" width="2.00"/>
    <type id="highway.bus_guideway" priority="1" numLanes="1" speed="27.78" allow="bus" oneway="1"/>
    <type id="highway.cycleway" priority="1" numLanes="1" speed="8.33" allow="bicycle" oneway="0" width="1.00"/>
    <type id="highway.footway" priority="1" numLanes="1" speed="2.78" allow="pedestrian" oneway="1" width="2.00"/>
    <type id="highway.ford" priority="1" numLanes="1" speed="2.78" allow="army" oneway="0"/>
    <type id="highway.living_street" priority="3" numLanes="1" speed="2.78" disallow="tram rail_urban rail rail_electric ship" oneway="0"/>
    <type id="highway.motorway" priority="13" numLanes="2" speed="44.44" allow="private emergency authority army vip passenger hov taxi bus coach delivery truck trailer motorcycle evehicle custom1 custom2" oneway="1"/>
    <type id="highway.motorway_link" priority="12" numLanes="1" speed="22.22" allow="private emergency authority army vip passenger hov taxi bus coach delivery truck trailer motorcycle evehicle custom1 custom2" oneway="1"/>
    <type id="highway.path" priority="1" numLanes="1" speed="2.78" allow="pedestrian bicycle" oneway="1" width="2.00"/>
    <type id="highway.pedestrian" priority="1" numLanes="1" speed="2.78" allow="pedestrian" oneway="1" width="2.00"/>
    <type id="highway.primary" priority="9" numLanes="2" speed="27.78" disallow="tram rail_urban rail rail_electric ship" oneway="0"/>
    <type id="highway.primary_link" priority="8" numLanes="1" speed="22.22" disallow="tram rail_urban rail rail_electric ship" oneway="0"/>
    <type id="highway.raceway" priority="14" numLanes="2" speed="83.33" allow="vip" oneway="0"/>
    <type id="highway.residential" priority="4" numLanes="1" speed="13.89" disallow="tram rail_urban rail rail_electric ship" oneway="0"/>
    <type id="highway.secondary" priority="7" numLanes="2" speed="27.78" disallow="tram rail_urban rail rail_electric ship" oneway="0"/>
    <type id="highway.secondary_link" priority="6" numLanes="1" speed="22.22" disallow="tram rail_urban rail rail_electric ship" oneway="0"/>
    <type id="highway.service" priority="2" numLanes="1" speed="5.56" allow="pedestrian delivery bicycle" oneway="0"/>
    <type id="highway.stairs" priority="1" numLanes="1" speed="1.39" allow="pedestrian" oneway="1" width="2.00"/>
    <type id="highway.step" priority="1" numLanes="1" speed="1.39" allow="pedestrian" oneway="1" width="2.00"/>
    <type id="highway.steps" priority="1" numLanes="1" speed="1.39" allow="pedestrian" oneway="1" width="2.00"/>
    <type id="highway.tertiary" priority="6" numLanes="1" speed="22.22" disallow="tram rail_urban rail rail_electric ship" oneway="0"/>
    <type id="highway.tertiary_link" priority="5" numLanes="1" speed="22.22" disallow="tram rail_urban rail rail_electric ship" oneway="0"/>
    <type id="highway.track" priority="1" numLanes="1" speed="5.56" disallow="tram rail_urban rail rail_electric ship" oneway="0"/>
    <type id="highway.trunk" priority="11" numLanes="2" speed="27.78" disallow="pedestrian bicycle tram rail_urban rail rail_electric ship" oneway="0"/>
    <type id="highway.trunk_link" priority="10" numLanes="1" speed="22.22" disallow="pedestrian bicycle tram rail_urban rail rail_electric ship" oneway="0"/>
    <type id="highway.unclassified" priority="5" numLanes="1" speed="13.89" disallow="tram rail_urban rail rail_electric ship" oneway="0"/>
    <type id="highway.unsurfaced" priority="1" numLanes="1" speed="8.33" disallow="tram rail_urban rail rail_electric ship" oneway="0"/>
    <type id="railway.light_rail" priority="15" numLanes="1" speed="27.78" allow="rail_urban" oneway="1"/>
    <type id="railway.preserved" priority="15" numLanes="1" speed="27.78" allow="rail" oneway="1"/>
    <type id="railway.rail" priority="15" numLanes="1" speed="83.33" allow="rail rail_electric" oneway="1"/>
    <type id="railway.subway" priority="15" numLanes="1" speed="27.78" allow="rail_urban" oneway="1"/>
    <type id="railway.tram" priority="15" numLanes="1" speed="13.89" allow="tram" oneway="1"/>

    <edge id=":4308145956_0" function="internal">
        <lane id=":4308145956_0_0" index="0" allow="private emergency authority army vip passenger hov taxi bus coach delivery truck trailer motorcycle evehicle custom1 custom2" speed="31.29" length="0.10" shape="9364.91,2068.20 9364.91,2068.20"/>
        <lane id=":4308145956_0_1" index="1" allow="private emergency authority army vip passenger hov taxi bus coach delivery truck trailer motorcycle evehicle custom1 custom2" speed="31.29" length="0.10" shape="9362.02,2066.83 9362.02,2066.83"/>
        <lane id=":4308145956_0_2" index="2" allow="private emergency authority army vip passenger hov taxi bus coach delivery truck trailer motorcycle evehicle custom1 custom2" speed="31.29" length="0.10" shape="9359.13,2065.46 9359.13,2065.46"/>
    </edge>
    <edge id=":4308145961_0" function="internal">
        <lane id=":4308145961_0_0" index="0" allow="private emergency authority army vip passenger hov taxi bus coach delivery truck trailer motorcycle evehicle custom1 custom2" speed="31.29" length="0.44" shape="8004.14,3101.61 8004.10,3101.64 8004.08,3101.65 8004.06,3101.67 8004.02,3101.70"/>
        <lane id=":4308145961_0_1" index="1" allow="private emergency authority army vip passenger hov taxi bus coach delivery truck trailer motorcycle evehicle custom1 custom2" speed="31.29" length="0.44" shape="8002.46,3098.89 8002.35,3098.96 8002.27,3099.01 8002.20,3099.06 8002.09,3099.14"/>
        <lane id=":4308145961_0_2" index="2" allow="private emergency authority army vip passenger hov taxi bus coach delivery truck trailer motorcycle evehicle custom1 custom2" speed="31.29" length="0.44" shape="8000.78,3096.17 8000.59,3096.29 8000.46,3096.37 8000.34,3096.46 8000.17,3096.59"/>
    </edge>
    <edge id=":4815187016_0" function="internal">
        <lane id=":4815187016_0_0" index="0" allow="private emergency authority army vip passenger hov taxi bus coach delivery truck trailer motorcycle evehicle custom1 custom2" speed="31.29" length="0.10" shape="6854.15,3547.98 6854.15,3547.98"/>
        <lane id=":4815187016_0_1" index="1" allow="private emergency authority army vip passenger hov taxi bus coach delivery truck trailer motorcycle evehicle custom1 custom2" speed="31.29" length="0.10" shape="6853.60,3544.83 6853.60,3544.83"/>
        <lane id=":4815187016_0_2" index="2" allow="private emergency authority army vip passenger hov taxi bus coach delivery truck trailer motorcycle evehicle custom1 custom2" speed="31.29" length="0.10" shape="6853.05,3541.68 6853.05,3541.68"/>
    </edge>
    <edge id=":4834054130_0" function="internal">
        <lane id=":4834054130_0_0" index="0" allow="private emergency authority army vip passenger hov taxi bus coach delivery truck trailer motorcycle evehicle custom1 custom2" speed="31.29" length="0.29" shape="7885.45,3205.54 7885.21,3205.77"/>
        <lane id=":4834054130_0_1" index="1" allow="private emergency authority army vip passenger hov taxi bus coach delivery truck trailer motorcycle evehicle custom1 custom2" speed="31.29" length="0.29" shape="7883.23,3203.23 7883.03,3203.43"/>
        <lane id=":4834054130_0_2" index="2" allow="private emergency authority army vip passenger hov taxi bus coach delivery truck trailer motorcycle evehicle custom1 custom2" speed="31.29" length="0.29" shape="7881.01,3200.92 7880.84,3201.09"/>
    </edge>
    <edge id=":62290112_0" function="internal">
        <lane id=":62290112_0_0" index="0" allow="private emergency authority army vip passenger hov taxi bus coach delivery truck trailer motorcycle evehicle custom1 custom2" speed="31.29" length="0.29" shape="9124.70,2436.41 9124.43,2436.69"/>
        <lane id=":62290112_0_1" index="1" allow="private emergency authority army vip passenger hov taxi bus coach delivery truck trailer motorcycle evehicle custom1 custom2" speed="31.29" length="0.29" shape="9122.37,2434.21 9122.17,2434.42"/>
        <lane id=":62290112_0_2" index="2" allow="private emergency authority army vip passenger hov taxi bus coach delivery truck trailer motorcycle evehicle custom1 custom2" speed="31.29" length="0.29" shape="9120.05,2432.02 9119.90,2432.16"/>
    </edge>
    <edge id=":62339796_0" function="internal">
        <lane id=":62339796_0_0" index="0" allow="private emergency authority army vip passenger hov taxi bus coach delivery truck trailer motorcycle evehicle custom1 custom2" speed="26.75" length="67.94" shape="4135.12,3942.67 4067.63,3950.47"/>
    </edge>
    <edge id=":62339796_1" function="internal">
        <lane id=":62339796_1_0" index="0" allow="private emergency authority army vip passenger hov taxi bus coach delivery truck trailer motorcycle evehicle custom1 custom2" speed="31.29" length="68.04" shape="4134.82,3939.35 4067.63,3950.47"/>
        <lane id=":62339796_1_1" index="1" allow="private emergency authority army vip passenger hov taxi bus coach delivery truck trailer motorcycle evehicle custom1 custom2" speed="31.29" length="68.04" shape="4134.37,3936.18 4067.24,3947.29"/>
        <lane id=":62339796_1_2" index="2" allow="private emergency authority army vip passenger hov taxi bus coach delivery truck trailer motorcycle evehicle custom1 custom2" speed="31.29" length="68.04" shape="4133.92,3933.02 4066.85,3944.11"/>
    </edge>
    <edge id=":gneJ1_0" function="internal">
        <lane id=":gneJ1_0_0" index="0" allow="private emergency authority army vip passenger hov taxi bus coach delivery truck trailer motorcycle evehicle custom1 custom2" speed="31.29" length="0.28" shape="3999.71,3958.89 3999.49,3958.92"/>
        <lane id=":gneJ1_0_1" index="1" allow="private emergency authority army vip passenger hov taxi bus coach delivery truck trailer motorcycle evehicle custom1 custom2" speed="31.29" length="0.28" shape="3999.32,3955.71 3999.04,3955.75"/>
        <lane id=":gneJ1_0_2" index="2" allow="private emergency authority army vip passenger hov taxi bus coach delivery truck trailer motorcycle evehicle custom1 custom2" speed="31.29" length="0.28" shape="3998.93,3952.54 3998.59,3952.58"/>
    </edge>
    <edge id=":gneJ14_0" function="internal">
        <lane id=":gneJ14_0_0" index="0" allow="private emergency authority army vip passenger hov taxi bus coach delivery truck trailer motorcycle evehicle custom1 custom2" speed="31.29" length="32.10" shape="6467.22,3611.14 6462.20,3611.10 6454.90,3611.02 6445.75,3611.30 6435.18,3612.38"/>
    </edge>
    <edge id=":gneJ14_1" function="internal">
        <lane id=":gneJ14_1_0" index="0" allow="private emergency authority army vip passenger hov taxi bus coach delivery truck trailer motorcycle evehicle custom1 custom2" speed="31.29" length="32.06" shape="6466.88,3607.50 6435.18,3612.38"/>
        <lane id=":gneJ14_1_1" index="1" allow="private emergency authority army vip passenger hov taxi bus coach delivery truck trailer motorcycle evehicle custom1 custom2" speed="31.29" length="32.06" shape="6466.41,3604.33 6434.72,3609.21"/>
        <lane id=":gneJ14_1_2" index="2" allow="private emergency authority army vip passenger hov taxi bus coach delivery truck trailer motorcycle evehicle custom1 custom2" speed="31.29" length="32.06" shape="6465.93,3601.17 6434.27,3606.05"/>
    </edge>
    <edge id=":gneJ17_0" function="internal">
        <lane id=":gneJ17_0_0" index="0" allow="private emergency authority army vip passenger hov taxi bus coach delivery truck trailer motorcycle evehicle custom1 custom2" speed="31.29" length="0.30" shape="6750.94,3564.99 6750.62,3565.04"/>
        <lane id=":gneJ17_0_1" index="1" allow="private emergency authority army vip passenger hov taxi bus coach delivery truck trailer motorcycle evehicle custom1 custom2" speed="31.29" length="0.30" shape="6750.44,3561.83 6750.14,3561.87"/>
        <lane id=":gneJ17_0_2" index="2" allow="private emergency authority army vip passenger hov taxi bus coach delivery truck trailer motorcycle evehicle custom1 custom2" speed="31.29" length="0.30" shape="6749.94,3558.67 6749.67,3558.71"/>
    </edge>
    <edge id=":gneJ18_0" function="internal">
        <lane id=":gneJ18_0_0" index="0" allow="private emergency authority army vip passenger hov taxi bus coach delivery truck trailer motorcycle evehicle custom1 custom2" speed="31.29" length="42.74" shape="7343.20,3473.00 7300.65,3476.97"/>
    </edge>
    <edge id=":gneJ18_1" function="internal">
        <lane id=":gneJ18_1_0" index="0" allow="private emergency authority army vip passenger hov taxi bus coach delivery truck trailer motorcycle evehicle custom1 custom2" speed="31.29" length="43.00" shape="7343.05,3469.60 7300.65,3476.97"/>
        <lane id=":gneJ18_1_1" index="1" allow="private emergency authority army vip passenger hov taxi bus coach delivery truck trailer motorcycle evehicle custom1 custom2" speed="31.29" length="43.00" shape="7342.49,3466.45 7300.12,3473.81"/>
        <lane id=":gneJ18_1_2" index="2" allow="private emergency authority army vip passenger hov taxi bus coach delivery truck trailer motorcycle evehicle custom1 custom2" speed="31.29" length="43.00" shape="7341.92,3463.30 7299.59,3470.66"/>
    </edge>
    <edge id=":gneJ22_0" function="internal">
        <lane id=":gneJ22_0_0" index="0" allow="private emergency authority army vip passenger hov taxi bus coach delivery truck trailer motorcycle evehicle custom1 custom2" speed="31.29" length="0.30" shape="7187.79,3495.83 7187.48,3495.88"/>
        <lane id=":gneJ22_0_1" index="1" allow="private emergency authority army vip passenger hov taxi bus coach delivery truck trailer motorcycle evehicle custom1 custom2" speed="31.29" length="0.30" shape="7187.27,3492.68 7186.97,3492.72"/>
        <lane id=":gneJ22_0_2" index="2" allow="private emergency authority army vip passenger hov taxi bus coach delivery truck trailer motorcycle evehicle custom1 custom2" speed="31.29" length="0.30" shape="7186.74,3489.52 7186.46,3489.56"/>
    </edge>
    <edge id=":gneJ24_0" function="internal">
        <lane id=":gneJ24_0_0" index="0" allow="private emergency authority army vip passenger hov taxi bus coach delivery truck trailer motorcycle evehicle custom1 custom2" speed="31.29" length="0.30" shape="8408.65,2900.20 8408.37,2900.34"/>
        <lane id=":gneJ24_0_1" index="1" allow="private emergency authority army vip passenger hov taxi bus coach delivery truck trailer motorcycle evehicle custom1 custom2" speed="31.29" length="0.30" shape="8407.25,2897.32 8406.99,2897.45"/>
        <lane id=":gneJ24_0_2" index="2" allow="private emergency authority army vip passenger hov taxi bus coach delivery truck trailer motorcycle evehicle custom1 custom2" speed="31.29" length="0.30" shape="8405.86,2894.45 8405.60,2894.57"/>
    </edge>
    <edge id=":gneJ26_0" function="internal">
        <lane id=":gneJ26_0_0" index="0" allow="private emergency authority army vip passenger hov taxi bus coach delivery truck trailer motorcycle evehicle custom1 custom2" speed="31.29" length="0.30" shape="8538.56,2837.15 8538.29,2837.27"/>
        <lane id=":gneJ26_0_1" index="1" allow="private emergency authority army vip passenger hov taxi bus coach delivery truck trailer motorcycle evehicle custom1 custom2" speed="31.29" length="0.30" shape="8537.16,2834.26 8536.90,2834.40"/>
        <lane id=":gneJ26_0_2" index="2" allow="private emergency authority army vip passenger hov taxi bus coach delivery truck trailer motorcycle evehicle custom1 custom2" speed="31.29" length="0.30" shape="8535.77,2831.38 8535.50,2831.52"/>
    </edge>
    <edge id=":gneJ29_0" function="internal">
        <lane id=":gneJ29_0_0" index="0" allow="private emergency authority army vip passenger hov taxi bus coach delivery truck trailer motorcycle evehicle custom1 custom2" speed="31.29" length="0.34" shape="9136.80,2423.59 9136.50,2423.92"/>
        <lane id=":gneJ29_0_1" index="1" allow="private emergency authority army vip passenger hov taxi bus coach delivery truck trailer motorcycle evehicle custom1 custom2" speed="31.29" length="0.34" shape="9134.40,2421.47 9134.17,2421.72"/>
        <lane id=":gneJ29_0_2" index="2" allow="private emergency authority army vip passenger hov taxi bus coach delivery truck trailer motorcycle evehicle custom1 custom2" speed="31.29" length="0.34" shape="9132.01,2419.35 9131.85,2419.53"/>
    </edge>
    <edge id=":gneJ3_0" function="internal">
        <lane id=":gneJ3_0_0" index="0" allow="private emergency authority army vip passenger hov taxi bus coach delivery truck trailer motorcycle evehicle custom1 custom2" speed="31.29" length="0.30" shape="4632.22,3869.00 4631.91,3869.04"/>
        <lane id=":gneJ3_0_1" index="1" allow="private emergency authority army vip passenger hov taxi bus coach delivery truck trailer motorcycle evehicle custom1 custom2" speed="31.29" length="0.30" shape="4631.76,3865.83 4631.46,3865.87"/>
        <lane id=":gneJ3_0_2" index="2" allow="private emergency authority army vip passenger hov taxi bus coach delivery truck trailer motorcycle evehicle custom1 custom2" speed="31.29" length="0.30" shape="4631.30,3862.66 4631.01,3862.70"/>
    </edge>
    <edge id=":gneJ32_0" function="internal">
        <lane id=":gneJ32_0_0" index="0" allow="private emergency authority army vip passenger hov taxi bus coach delivery truck trailer motorcycle evehicle custom1 custom2" speed="31.29" length="0.46" shape="9202.32,2347.39 9201.96,2347.88"/>
        <lane id=":gneJ32_0_1" index="1" allow="private emergency authority army vip passenger hov taxi bus coach delivery truck trailer motorcycle evehicle custom1 custom2" speed="31.29" length="0.46" shape="9199.71,2345.53 9199.44,2345.90"/>
        <lane id=":gneJ32_0_2" index="2" allow="private emergency authority army vip passenger hov taxi bus coach delivery truck trailer motorcycle evehicle custom1 custom2" speed="31.29" length="0.46" shape="9197.10,2343.68 9196.92,2343.93"/>
    </edge>
    <edge id=":gneJ4_0" function="internal">
        <lane id=":gneJ4_0_0" index="0" allow="private emergency authority army vip passenger hov taxi bus coach delivery truck trailer motorcycle evehicle custom1 custom2" speed="31.29" length="0.29" shape="4730.42,3853.78 4730.16,3853.81"/>
        <lane id=":gneJ4_0_1" index="1" allow="private emergency authority army vip passenger hov taxi bus coach delivery truck trailer motorcycle evehicle custom1 custom2" speed="31.29" length="0.29" shape="4729.96,3850.61 4729.66,3850.65"/>
        <lane id=":gneJ4_0_2" index="2" allow="private emergency authority army vip passenger hov taxi bus coach delivery truck trailer motorcycle evehicle custom1 custom2" speed="31.29" length="0.29" shape="4729.50,3847.44 4729.17,3847.49"/>
    </edge>
    <edge id=":gneJ42_0" function="internal">
        <lane id=":gneJ42_0_0" index="0" allow="private emergency authority army vip passenger hov taxi bus coach delivery truck trailer motorcycle evehicle custom1 custom2" speed="31.29" length="0.28" shape="7711.66,3359.48 7711.36,3359.67"/>
        <lane id=":gneJ42_0_1" index="1" allow="private emergency authority army vip passenger hov taxi bus coach delivery truck trailer motorcycle evehicle custom1 custom2" speed="31.29" length="0.28" shape="7709.87,3356.82 7709.64,3356.97"/>
        <lane id=":gneJ42_0_2" index="2" allow="private emergency authority army vip passenger hov taxi bus coach delivery truck trailer motorcycle evehicle custom1 custom2" speed="31.29" length="0.28" shape="7708.09,3354.17 7707.92,3354.27"/>
    </edge>
    <edge id=":gneJ8_0" function="internal">
        <lane id=":gneJ8_0_0" index="0" allow="private emergency authority army vip passenger hov taxi bus coach delivery truck trailer motorcycle evehicle custom1 custom2" speed="31.29" length="0.28" shape="5677.32,3721.75 5676.98,3721.79"/>
        <lane id=":gneJ8_0_1" index="1" allow="private emergency authority army vip passenger hov taxi bus coach delivery truck trailer motorcycle evehicle custom1 custom2" speed="31.29" length="0.28" shape="5676.87,3718.58 5676.59,3718.62"/>
        <lane id=":gneJ8_0_2" index="2" allow="private emergency authority army vip passenger hov taxi bus coach delivery truck trailer motorcycle evehicle custom1 custom2" speed="31.29" length="0.28" shape="5676.42,3715.41 5676.20,3715.44"/>
    </edge>

    <edge id="124433709.427" from="gneJ39" to="gneJ18" name="Walter P Reuther Freeway" priority="16" type="highway.motorway" spreadType="center" shape="9050.26,3935.31 9046.74,3933.34 8964.85,3884.39 8829.29,3799.80 8530.58,3617.65 8289.47,3470.81 8242.91,3445.52 8212.12,3431.92 8185.41,3421.51 8159.98,3413.67 8134.07,3405.99 8102.29,3398.21 8050.97,3391.62 7999.00,3388.72 7958.82,3389.62 7919.83,3393.54 7779.30,3413.60 7437.87,3461.68 7310.65,3476.89 7292.90,3475.02">
        <lane id="124433709.427_0" index="0" allow="private emergency authority army vip passenger hov taxi bus coach delivery truck trailer motorcycle evehicle custom1 custom2" speed="31.29" length="1858.33" shape="9050.26,3935.31 9046.74,3933.34 8964.85,3884.39 8829.29,3799.80 8530.58,3617.65 8289.47,3470.81 8242.91,3445.52 8212.12,3431.92 8185.41,3421.51 8159.98,3413.67 8134.07,3405.99 8102.29,3398.21 8050.97,3391.62 7999.00,3388.72 7958.82,3389.62 7919.83,3393.54 7779.30,3413.60 7437.87,3461.68 7343.20,3473.00">
            <param key="origId" value="124433709"/>
        </lane>
    </edge>
    <edge id="124433730#0" from="gneJ8" to="gneJ4" priority="13" type="highway.motorway" spreadType="center" shape="5676.73,3718.60 5410.69,3751.12 5099.60,3796.90 4729.81,3850.63">
        <lane id="124433730#0_0" index="0" allow="private emergency authority army vip passenger hov taxi bus coach delivery truck trailer motorcycle evehicle custom1 custom2" speed="31.29" length="955.85" shape="5676.98,3721.79 5411.12,3754.29 5100.06,3800.07 4730.42,3853.78">
            <param key="origId" value="124433730"/>
        </lane>
        <lane id="124433730#0_1" index="1" allow="private emergency authority army vip passenger hov taxi bus coach delivery truck trailer motorcycle evehicle custom1 custom2" speed="31.29" length="955.85" shape="5676.59,3718.62 5410.69,3751.12 5099.60,3796.90 4729.96,3850.61">
            <param key="origId" value="124433730"/>
        </lane>
        <lane id="124433730#0_2" index="2" allow="private emergency authority army vip passenger hov taxi bus coach delivery truck trailer motorcycle evehicle custom1 custom2" speed="31.29" length="955.85" shape="5676.20,3715.44 5410.26,3747.95 5099.14,3793.73 4729.50,3847.44">
            <param key="origId" value="124433730"/>
        </lane>
    </edge>
    <edge id="124433730#1" from="gneJ3" to="62339796" priority="13" type="highway.motorway" spreadType="center">
        <lane id="124433730#1_0" index="0" allow="private emergency authority army vip passenger hov taxi bus coach delivery truck trailer motorcycle evehicle custom1 custom2" speed="31.29" length="502.04" shape="4631.91,3869.04 4134.82,3939.35">
            <param key="origId" value="124433730"/>
        </lane>
        <lane id="124433730#1_1" index="1" allow="private emergency authority army vip passenger hov taxi bus coach delivery truck trailer motorcycle evehicle custom1 custom2" speed="31.29" length="502.04" shape="4631.46,3865.87 4134.37,3936.18">
            <param key="origId" value="124433730"/>
        </lane>
        <lane id="124433730#1_2" index="2" allow="private emergency authority army vip passenger hov taxi bus coach delivery truck trailer motorcycle evehicle custom1 custom2" speed="31.29" length="502.04" shape="4631.01,3862.70 4133.92,3933.02">
            <param key="origId" value="124433730"/>
        </lane>
    </edge>
    <edge id="124433730#1-AddedOnRampEdge" from="gneJ4" to="gneJ3" priority="13" type="highway.motorway" spreadType="center" shape="4729.81,3850.63 4643.36,3864.15 4631.61,3865.85">
        <lane id="124433730#1-AddedOnRampEdge_0" index="0" allow="private emergency authority army vip passenger hov taxi bus coach delivery truck trailer motorcycle evehicle custom1 custom2" speed="31.29" length="99.08" acceleration="1" shape="4730.16,3853.81 4643.84,3867.31 4632.22,3869.00">
            <param key="origId" value="124433730"/>
        </lane>
        <lane id="124433730#1-AddedOnRampEdge_1" index="1" allow="private emergency authority army vip passenger hov taxi bus coach delivery truck trailer motorcycle evehicle custom1 custom2" speed="31.29" length="99.08" shape="4729.66,3850.65 4643.36,3864.15 4631.76,3865.83">
            <param key="origId" value="124433730"/>
        </lane>
        <lane id="124433730#1-AddedOnRampEdge_2" index="2" allow="private emergency authority army vip passenger hov taxi bus coach delivery truck trailer motorcycle evehicle custom1 custom2" speed="31.29" length="99.08" shape="4729.17,3847.49 4642.88,3860.99 4631.30,3862.66">
            <param key="origId" value="124433730"/>
        </lane>
    </edge>
    <edge id="124433730#2" from="gneJ1" to="4836913481" priority="13" type="highway.motorway" spreadType="center" shape="3999.18,3955.73 3858.12,3975.78 3794.76,3986.08 3720.75,3998.15 3678.12,4006.07 3614.49,4021.61 3546.07,4038.66 3491.78,4055.67 3421.61,4077.96 3367.82,4095.47 3093.27,4181.05 2740.95,4295.65 2620.09,4334.64 2383.47,4410.76 2250.75,4453.64">
        <lane id="124433730#2_0" index="0" allow="private emergency authority army vip passenger hov taxi bus coach delivery truck trailer motorcycle evehicle custom1 custom2" speed="31.29" length="1821.07" shape="3999.49,3958.92 3858.60,3978.94 3795.27,3989.24 3721.30,4001.30 3678.79,4009.20 3615.26,4024.72 3546.94,4041.74 3492.74,4058.72 3422.59,4081.01 3368.79,4098.52 3094.24,4184.10 2741.94,4298.69 2621.07,4337.69 2384.45,4413.81 2251.73,4456.69">
            <param key="origId" value="124433730 22723378 8708084"/>
        </lane>
        <lane id="124433730#2_1" index="1" allow="private emergency authority army vip passenger hov taxi bus coach delivery truck trailer motorcycle evehicle custom1 custom2" speed="31.29" length="1821.07" shape="3999.04,3955.75 3858.12,3975.78 3794.76,3986.08 3720.75,3998.15 3678.12,4006.07 3614.49,4021.61 3546.07,4038.66 3491.78,4055.67 3421.61,4077.96 3367.82,4095.47 3093.27,4181.05 2740.95,4295.65 2620.09,4334.64 2383.47,4410.76 2250.75,4453.64">
            <param key="origId" value="124433730 22723378 8708084"/>
        </lane>
        <lane id="124433730#2_2" index="2" allow="private emergency authority army vip passenger hov taxi bus coach delivery truck trailer motorcycle evehicle custom1 custom2" speed="31.29" length="1821.07" shape="3998.59,3952.58 3857.64,3972.62 3794.25,3982.92 3720.20,3995.00 3677.45,4002.94 3613.72,4018.50 3545.20,4035.58 3490.82,4052.62 3420.63,4074.91 3366.85,4092.42 3092.30,4178.00 2739.96,4292.61 2619.11,4331.59 2382.49,4407.71 2249.77,4450.59">
            <param key="origId" value="124433730 22723378 8708084"/>
        </lane>
    </edge>
    <edge id="124433730#2-AddedOnRampEdge" from="62339796" to="gneJ1" priority="13" type="highway.motorway" spreadType="center" shape="4067.24,3947.29 3999.18,3955.73">
        <lane id="124433730#2-AddedOnRampEdge_0" index="0" allow="private emergency authority army vip passenger hov taxi bus coach delivery truck trailer motorcycle evehicle custom1 custom2" speed="31.29" length="68.44" acceleration="1" shape="4067.63,3950.47 3999.71,3958.89">
            <param key="origId" value="124433730 22723378 8708084"/>
        </lane>
        <lane id="124433730#2-AddedOnRampEdge_1" index="1" allow="private emergency authority army vip passenger hov taxi bus coach delivery truck trailer motorcycle evehicle custom1 custom2" speed="31.29" length="68.44" shape="4067.24,3947.29 3999.32,3955.71">
            <param key="origId" value="124433730 22723378 8708084"/>
        </lane>
        <lane id="124433730#2-AddedOnRampEdge_2" index="2" allow="private emergency authority army vip passenger hov taxi bus coach delivery truck trailer motorcycle evehicle custom1 custom2" speed="31.29" length="68.44" shape="4066.85,3944.11 3998.93,3952.54">
            <param key="origId" value="124433730 22723378 8708084"/>
        </lane>
    </edge>