<?xml version="1.0" encoding="UTF-8"?>

<!-- generated on Thu 19 May 2022 10:47:17 AM CDT by Eclipse SUMO netedit Version 1.6.0
<configuration xmlns:xsi="http://www.w3.org/2001/XMLSchema-instance" xsi:noNamespaceSchemaLocation="http://sumo.dlr.de/xsd/netconvertConfiguration.xsd">

    <input>
        <sumo-net-file value="modified-multilane-i696-three-merges.net.xml"/>
    </input>

    <output>
        <output-file value="modified-multilane-i696-three-merges.net.xml"/>
        <output.street-names value="true"/>
    </output>

    <processing>
        <geometry.min-radius.fix.railways value="false"/>
        <geometry.max-grade.fix value="false"/>
        <offset.disable-normalization value="true"/>
        <lefthand value="false"/>
    </processing>

    <junctions>
        <no-turnarounds value="true"/>
        <junctions.corner-detail value="5"/>
        <junctions.limit-turn-speed value="5.5"/>
        <rectangular-lane-cut value="false"/>
    </junctions>

    <pedestrian>
        <walkingareas value="false"/>
    </pedestrian>

    <report>
        <aggregate-warnings value="5"/>
    </report>

</configuration>
-->

<net version="1.6" junctionCornerDetail="5" limitTurnSpeed="5.50" xmlns:xsi="http://www.w3.org/2001/XMLSchema-instance" xsi:noNamespaceSchemaLocation="http://sumo.dlr.de/xsd/net_file.xsd">

    <location netOffset="-291727.60,-4702987.13" convBoundary="3801.54,3056.84,8096.64,4001.51" origBoundary="-83.535679,42.452940,-83.398128,42.524242" projParameter="+proj=utm +zone=17 +ellps=WGS84 +datum=WGS84 +units=m +no_defs"/>

    <type id="highway.bridleway" priority="1" numLanes="1" speed="2.78" allow="pedestrian" oneway="1" width="2.00"/>
    <type id="highway.bus_guideway" priority="1" numLanes="1" speed="27.78" allow="bus" oneway="1"/>
    <type id="highway.cycleway" priority="1" numLanes="1" speed="8.33" allow="bicycle" oneway="0" width="1.00"/>
    <type id="highway.footway" priority="1" numLanes="1" speed="2.78" allow="pedestrian" oneway="1" width="2.00"/>
    <type id="highway.ford" priority="1" numLanes="1" speed="2.78" allow="army" oneway="0"/>
    <type id="highway.living_street" priority="3" numLanes="1" speed="2.78" disallow="tram rail_urban rail rail_electric ship" oneway="0"/>
    <type id="highway.motorway" priority="13" numLanes="2" speed="44.44" allow="private emergency authority army vip passenger hov taxi bus coach delivery truck trailer motorcycle evehicle custom1 custom2" oneway="1"/>
    <type id="highway.motorway_link" priority="12" numLanes="1" speed="22.22" allow="private emergency authority army vip passenger hov taxi bus coach delivery truck trailer motorcycle evehicle custom1 custom2" oneway="1"/>
    <type id="highway.path" priority="1" numLanes="1" speed="2.78" allow="pedestrian bicycle" oneway="1" width="2.00"/>
    <type id="highway.pedestrian" priority="1" numLanes="1" speed="2.78" allow="pedestrian" oneway="1" width="2.00"/>
    <type id="highway.primary" priority="9" numLanes="2" speed="27.78" disallow="tram rail_urban rail rail_electric ship" oneway="0"/>
    <type id="highway.primary_link" priority="8" numLanes="1" speed="22.22" disallow="tram rail_urban rail rail_electric ship" oneway="0"/>
    <type id="highway.raceway" priority="14" numLanes="2" speed="83.33" allow="vip" oneway="0"/>
    <type id="highway.residential" priority="4" numLanes="1" speed="13.89" disallow="tram rail_urban rail rail_electric ship" oneway="0"/>
    <type id="highway.secondary" priority="7" numLanes="2" speed="27.78" disallow="tram rail_urban rail rail_electric ship" oneway="0"/>
    <type id="highway.secondary_link" priority="6" numLanes="1" speed="22.22" disallow="tram rail_urban rail rail_electric ship" oneway="0"/>
    <type id="highway.service" priority="2" numLanes="1" speed="5.56" allow="pedestrian delivery bicycle" oneway="0"/>
    <type id="highway.stairs" priority="1" numLanes="1" speed="1.39" allow="pedestrian" oneway="1" width="2.00"/>
    <type id="highway.step" priority="1" numLanes="1" speed="1.39" allow="pedestrian" oneway="1" width="2.00"/>
    <type id="highway.steps" priority="1" numLanes="1" speed="1.39" allow="pedestrian" oneway="1" width="2.00"/>
    <type id="highway.tertiary" priority="6" numLanes="1" speed="22.22" disallow="tram rail_urban rail rail_electric ship" oneway="0"/>
    <type id="highway.tertiary_link" priority="5" numLanes="1" speed="22.22" disallow="tram rail_urban rail rail_electric ship" oneway="0"/>
    <type id="highway.track" priority="1" numLanes="1" speed="5.56" disallow="tram rail_urban rail rail_electric ship" oneway="0"/>
    <type id="highway.trunk" priority="11" numLanes="2" speed="27.78" disallow="pedestrian bicycle tram rail_urban rail rail_electric ship" oneway="0"/>
    <type id="highway.trunk_link" priority="10" numLanes="1" speed="22.22" disallow="pedestrian bicycle tram rail_urban rail rail_electric ship" oneway="0"/>
    <type id="highway.unclassified" priority="5" numLanes="1" speed="13.89" disallow="tram rail_urban rail rail_electric ship" oneway="0"/>
    <type id="highway.unsurfaced" priority="1" numLanes="1" speed="8.33" disallow="tram rail_urban rail rail_electric ship" oneway="0"/>
    <type id="railway.light_rail" priority="15" numLanes="1" speed="27.78" allow="rail_urban" oneway="1"/>
    <type id="railway.preserved" priority="15" numLanes="1" speed="27.78" allow="rail" oneway="1"/>
    <type id="railway.rail" priority="15" numLanes="1" speed="83.33" allow="rail rail_electric" oneway="1"/>
    <type id="railway.subway" priority="15" numLanes="1" speed="27.78" allow="rail_urban" oneway="1"/>
    <type id="railway.tram" priority="15" numLanes="1" speed="13.89" allow="tram" oneway="1"/>

    <edge id=":4308145956_0" function="internal">
        <lane id=":4308145956_0_0" index="0" allow="private emergency authority army vip passenger hov taxi bus coach delivery truck trailer motorcycle evehicle custom1 custom2" speed="31.29" length="0.29" shape="8057.02,3086.44 8056.94,3086.50"/>
        <lane id=":4308145956_0_1" index="1" allow="private emergency authority army vip passenger hov taxi bus coach delivery truck trailer motorcycle evehicle custom1 custom2" speed="31.29" length="0.29" shape="8055.27,3083.76 8055.03,3083.93"/>
        <lane id=":4308145956_0_2" index="2" allow="private emergency authority army vip passenger hov taxi bus coach delivery truck trailer motorcycle evehicle custom1 custom2" speed="31.29" length="0.29" shape="8053.53,3081.08 8053.13,3081.36"/>
    </edge>
    <edge id=":4308145961_0" function="internal">
        <lane id=":4308145961_0_0" index="0" allow="private emergency authority army vip passenger hov taxi bus coach delivery truck trailer motorcycle evehicle custom1 custom2" speed="31.29" length="0.38" shape="7819.71,3269.36 7819.50,3269.53"/>
        <lane id=":4308145961_0_1" index="1" allow="private emergency authority army vip passenger hov taxi bus coach delivery truck trailer motorcycle evehicle custom1 custom2" speed="31.29" length="0.38" shape="7817.70,3266.87 7817.40,3267.12"/>
        <lane id=":4308145961_0_2" index="2" allow="private emergency authority army vip passenger hov taxi bus coach delivery truck trailer motorcycle evehicle custom1 custom2" speed="31.29" length="0.38" shape="7815.69,3264.38 7815.31,3264.70"/>
    </edge>
    <edge id=":4815187016_0" function="internal">
        <lane id=":4815187016_0_0" index="0" allow="private emergency authority army vip passenger hov taxi bus coach delivery truck trailer motorcycle evehicle custom1 custom2" speed="31.29" length="0.30" shape="6854.25,3547.97 6853.97,3548.01"/>
        <lane id=":4815187016_0_1" index="1" allow="private emergency authority army vip passenger hov taxi bus coach delivery truck trailer motorcycle evehicle custom1 custom2" speed="31.29" length="0.30" shape="6853.75,3544.81 6853.45,3544.85"/>
        <lane id=":4815187016_0_2" index="2" allow="private emergency authority army vip passenger hov taxi bus coach delivery truck trailer motorcycle evehicle custom1 custom2" speed="31.29" length="0.30" shape="6853.25,3541.65 6852.93,3541.70"/>
    </edge>
    <edge id=":4834054130_0" function="internal">
        <lane id=":4834054130_0_0" index="0" allow="private emergency authority army vip passenger hov taxi bus coach delivery truck trailer motorcycle evehicle custom1 custom2" speed="31.29" length="0.27" shape="7761.98,3319.55 7761.63,3319.83"/>
        <lane id=":4834054130_0_1" index="1" allow="private emergency authority army vip passenger hov taxi bus coach delivery truck trailer motorcycle evehicle custom1 custom2" speed="31.29" length="0.27" shape="7759.88,3317.13 7759.67,3317.30"/>
        <lane id=":4834054130_0_2" index="2" allow="private emergency authority army vip passenger hov taxi bus coach delivery truck trailer motorcycle evehicle custom1 custom2" speed="31.29" length="0.27" shape="7757.78,3314.72 7757.71,3314.77"/>
    </edge>
    <edge id=":62290112_0" function="internal">
        <lane id=":62290112_0_0" index="0" allow="private emergency authority army vip passenger hov taxi bus coach delivery truck trailer motorcycle evehicle custom1 custom2" speed="31.29" length="0.36" shape="7952.21,3161.85 7952.01,3162.00"/>
        <lane id=":62290112_0_1" index="1" allow="private emergency authority army vip passenger hov taxi bus coach delivery truck trailer motorcycle evehicle custom1 custom2" speed="31.29" length="0.36" shape="7950.28,3159.29 7950.00,3159.51"/>
        <lane id=":62290112_0_2" index="2" allow="private emergency authority army vip passenger hov taxi bus coach delivery truck trailer motorcycle evehicle custom1 custom2" speed="31.29" length="0.36" shape="7948.36,3156.73 7947.99,3157.02"/>
    </edge>
    <edge id=":62339796_0" function="internal">
        <lane id=":62339796_0_0" index="0" allow="private emergency authority army vip passenger hov taxi bus coach delivery truck trailer motorcycle evehicle custom1 custom2" speed="26.75" length="21.23" shape="4088.85,3949.13 4084.91,3948.84 4080.33,3948.69 4074.71,3948.89 4067.67,3949.63"/>
    </edge>
    <edge id=":62339796_1" function="internal">
        <lane id=":62339796_1_0" index="0" allow="private emergency authority army vip passenger hov taxi bus coach delivery truck trailer motorcycle evehicle custom1 custom2" speed="31.29" length="21.53" shape="4088.73,3945.07 4067.67,3949.63"/>
        <lane id=":62339796_1_1" index="1" allow="private emergency authority army vip passenger hov taxi bus coach delivery truck trailer motorcycle evehicle custom1 custom2" speed="31.29" length="21.53" shape="4088.28,3941.90 4067.24,3946.46"/>
        <lane id=":62339796_1_2" index="2" allow="private emergency authority army vip passenger hov taxi bus coach delivery truck trailer motorcycle evehicle custom1 custom2" speed="31.29" length="21.53" shape="4087.84,3938.74 4066.81,3943.29"/>
    </edge>
    <edge id=":gneJ1_0" function="internal">
        <lane id=":gneJ1_0_0" index="0" allow="private emergency authority army vip passenger hov taxi bus coach delivery truck trailer motorcycle evehicle custom1 custom2" speed="31.29" length="0.30" shape="3999.76,3958.88 3999.55,3958.91"/>
        <lane id=":gneJ1_0_1" index="1" allow="private emergency authority army vip passenger hov taxi bus coach delivery truck trailer motorcycle evehicle custom1 custom2" speed="31.29" length="0.30" shape="3999.33,3955.71 3999.03,3955.75"/>
        <lane id=":gneJ1_0_2" index="2" allow="private emergency authority army vip passenger hov taxi bus coach delivery truck trailer motorcycle evehicle custom1 custom2" speed="31.29" length="0.30" shape="3998.90,3952.54 3998.51,3952.60"/>
    </edge>
    <edge id=":gneJ14_0" function="internal">
        <lane id=":gneJ14_0_0" index="0" allow="private emergency authority army vip passenger hov taxi bus coach delivery truck trailer motorcycle evehicle custom1 custom2" speed="31.29" length="30.16" shape="5859.85,3695.53 5855.13,3695.28 5848.50,3694.95 5840.02,3695.03 5829.75,3696.00"/>
    </edge>
    <edge id=":gneJ14_1" function="internal">
        <lane id=":gneJ14_1_0" index="0" allow="private emergency authority army vip passenger hov taxi bus coach delivery truck trailer motorcycle evehicle custom1 custom2" speed="31.29" length="30.09" shape="5859.55,3691.73 5829.75,3696.00"/>
        <lane id=":gneJ14_1_1" index="1" allow="private emergency authority army vip passenger hov taxi bus coach delivery truck trailer motorcycle evehicle custom1 custom2" speed="31.29" length="30.09" shape="5859.10,3688.56 5829.31,3692.83"/>
        <lane id=":gneJ14_1_2" index="2" allow="private emergency authority army vip passenger hov taxi bus coach delivery truck trailer motorcycle evehicle custom1 custom2" speed="31.29" length="30.09" shape="5858.64,3685.39 5828.86,3689.66"/>
    </edge>
    <edge id=":gneJ17_0" function="internal">
        <lane id=":gneJ17_0_0" index="0" allow="private emergency authority army vip passenger hov taxi bus coach delivery truck trailer motorcycle evehicle custom1 custom2" speed="31.29" length="0.28" shape="6750.95,3564.99 6750.60,3565.04"/>
        <lane id=":gneJ17_0_1" index="1" allow="private emergency authority army vip passenger hov taxi bus coach delivery truck trailer motorcycle evehicle custom1 custom2" speed="31.29" length="0.28" shape="6750.43,3561.83 6750.15,3561.87"/>
        <lane id=":gneJ17_0_2" index="2" allow="private emergency authority army vip passenger hov taxi bus coach delivery truck trailer motorcycle evehicle custom1 custom2" speed="31.29" length="0.28" shape="6749.91,3558.67 6749.70,3558.70"/>
    </edge>
    <edge id=":gneJ18_0" function="internal">
        <lane id=":gneJ18_0_0" index="0" allow="private emergency authority army vip passenger hov taxi bus coach delivery truck trailer motorcycle evehicle custom1 custom2" speed="31.29" length="28.04" shape="7345.52,3473.21 7340.99,3473.13 7334.85,3472.99 7327.05,3473.24 7317.55,3474.33"/>
    </edge>
    <edge id=":gneJ18_1" function="internal">
        <lane id=":gneJ18_1_0" index="0" allow="private emergency authority army vip passenger hov taxi bus coach delivery truck trailer motorcycle evehicle custom1 custom2" speed="31.29" length="28.09" shape="7345.26,3469.46 7317.55,3474.33"/>
        <lane id=":gneJ18_1_1" index="1" allow="private emergency authority army vip passenger hov taxi bus coach delivery truck trailer motorcycle evehicle custom1 custom2" speed="31.29" length="28.09" shape="7344.72,3466.30 7317.05,3471.17"/>
        <lane id=":gneJ18_1_2" index="2" allow="private emergency authority army vip passenger hov taxi bus coach delivery truck trailer motorcycle evehicle custom1 custom2" speed="31.29" length="28.09" shape="7344.18,3463.15 7316.54,3468.01"/>
    </edge>
    <edge id=":gneJ22_0" function="internal">
        <lane id=":gneJ22_0_0" index="0" allow="private emergency authority army vip passenger hov taxi bus coach delivery truck trailer motorcycle evehicle custom1 custom2" speed="31.29" length="0.30" shape="7238.35,3486.99 7238.05,3487.03"/>
        <lane id=":gneJ22_0_1" index="1" allow="private emergency authority army vip passenger hov taxi bus coach delivery truck trailer motorcycle evehicle custom1 custom2" speed="31.29" length="0.30" shape="7237.85,3483.83 7237.55,3483.87"/>
        <lane id=":gneJ22_0_2" index="2" allow="private emergency authority army vip passenger hov taxi bus coach delivery truck trailer motorcycle evehicle custom1 custom2" speed="31.29" length="0.30" shape="7237.34,3480.67 7237.05,3480.71"/>
    </edge>
    <edge id=":gneJ24_0" function="internal">
        <lane id=":gneJ24_0_0" index="0" allow="private emergency authority army vip passenger hov taxi bus coach delivery truck trailer motorcycle evehicle custom1 custom2" speed="31.29" length="0.30" shape="7858.82,3237.88 7858.57,3238.09"/>
        <lane id=":gneJ24_0_1" index="1" allow="private emergency authority army vip passenger hov taxi bus coach delivery truck trailer motorcycle evehicle custom1 custom2" speed="31.29" length="0.30" shape="7856.79,3235.41 7856.57,3235.59"/>
        <lane id=":gneJ24_0_2" index="2" allow="private emergency authority army vip passenger hov taxi bus coach delivery truck trailer motorcycle evehicle custom1 custom2" speed="31.29" length="0.30" shape="7854.76,3232.93 7854.56,3233.10"/>
    </edge>
    <edge id=":gneJ26_0" function="internal">
        <lane id=":gneJ26_0_0" index="0" allow="private emergency authority army vip passenger hov taxi bus coach delivery truck trailer motorcycle evehicle custom1 custom2" speed="31.29" length="0.30" shape="7906.27,3198.93 7906.06,3199.10"/>
        <lane id=":gneJ26_0_1" index="1" allow="private emergency authority army vip passenger hov taxi bus coach delivery truck trailer motorcycle evehicle custom1 custom2" speed="31.29" length="0.30" shape="7904.26,3196.44 7904.03,3196.62"/>
        <lane id=":gneJ26_0_2" index="2" allow="private emergency authority army vip passenger hov taxi bus coach delivery truck trailer motorcycle evehicle custom1 custom2" speed="31.29" length="0.30" shape="7902.25,3193.95 7901.99,3194.15"/>
    </edge>
    <edge id=":gneJ29_0" function="internal">
        <lane id=":gneJ29_0_0" index="0" allow="private emergency authority army vip passenger hov taxi bus coach delivery truck trailer motorcycle evehicle custom1 custom2" speed="31.29" length="0.30" shape="7993.60,3130.79 7993.52,3130.85"/>
        <lane id=":gneJ29_0_1" index="1" allow="private emergency authority army vip passenger hov taxi bus coach delivery truck trailer motorcycle evehicle custom1 custom2" speed="31.29" length="0.30" shape="7991.85,3128.12 7991.60,3128.29"/>
        <lane id=":gneJ29_0_2" index="2" allow="private emergency authority army vip passenger hov taxi bus coach delivery truck trailer motorcycle evehicle custom1 custom2" speed="31.29" length="0.30" shape="7990.09,3125.44 7989.68,3125.73"/>
    </edge>
    <edge id=":gneJ3_0" function="internal">
        <lane id=":gneJ3_0_0" index="0" allow="private emergency authority army vip passenger hov taxi bus coach delivery truck trailer motorcycle evehicle custom1 custom2" speed="31.29" length="0.30" shape="4632.22,3869.00 4631.91,3869.04"/>
        <lane id=":gneJ3_0_1" index="1" allow="private emergency authority army vip passenger hov taxi bus coach delivery truck trailer motorcycle evehicle custom1 custom2" speed="31.29" length="0.30" shape="4631.76,3865.83 4631.46,3865.87"/>
        <lane id=":gneJ3_0_2" index="2" allow="private emergency authority army vip passenger hov taxi bus coach delivery truck trailer motorcycle evehicle custom1 custom2" speed="31.29" length="0.30" shape="4631.30,3862.66 4631.02,3862.70"/>
    </edge>
    <edge id=":gneJ32_0" function="internal">
        <lane id=":gneJ32_0_0" index="0" allow="private emergency authority army vip passenger hov taxi bus coach delivery truck trailer motorcycle evehicle custom1 custom2" speed="31.29" length="0.28" shape="8025.17,3110.07 8024.79,3110.33"/>
        <lane id=":gneJ32_0_1" index="1" allow="private emergency authority army vip passenger hov taxi bus coach delivery truck trailer motorcycle evehicle custom1 custom2" speed="31.29" length="0.28" shape="8023.26,3107.50 8023.03,3107.66"/>
        <lane id=":gneJ32_0_2" index="2" allow="private emergency authority army vip passenger hov taxi bus coach delivery truck trailer motorcycle evehicle custom1 custom2" speed="31.29" length="0.28" shape="8021.35,3104.93 8021.28,3104.98"/>
    </edge>
    <edge id=":gneJ4_0" function="internal">
        <lane id=":gneJ4_0_0" index="0" allow="private emergency authority army vip passenger hov taxi bus coach delivery truck trailer motorcycle evehicle custom1 custom2" speed="31.29" length="0.30" shape="4730.45,3853.77 4730.16,3853.81"/>
        <lane id=":gneJ4_0_1" index="1" allow="private emergency authority army vip passenger hov taxi bus coach delivery truck trailer motorcycle evehicle custom1 custom2" speed="31.29" length="0.30" shape="4729.96,3850.61 4729.66,3850.65"/>
        <lane id=":gneJ4_0_2" index="2" allow="private emergency authority army vip passenger hov taxi bus coach delivery truck trailer motorcycle evehicle custom1 custom2" speed="31.29" length="0.30" shape="4729.47,3847.44 4729.17,3847.49"/>
    </edge>
    <edge id=":gneJ42_0" function="internal">
        <lane id=":gneJ42_0_0" index="0" allow="private emergency authority army vip passenger hov taxi bus coach delivery truck trailer motorcycle evehicle custom1 custom2" speed="31.29" length="0.27" shape="7712.57,3357.88 7712.20,3358.14"/>
        <lane id=":gneJ42_0_1" index="1" allow="private emergency authority army vip passenger hov taxi bus coach delivery truck trailer motorcycle evehicle custom1 custom2" speed="31.29" length="0.27" shape="7710.61,3355.35 7710.39,3355.51"/>
        <lane id=":gneJ42_0_2" index="2" allow="private emergency authority army vip passenger hov taxi bus coach delivery truck trailer motorcycle evehicle custom1 custom2" speed="31.29" length="0.27" shape="7708.65,3352.82 7708.57,3352.87"/>
    </edge>
    <edge id=":gneJ8_0" function="internal">
        <lane id=":gneJ8_0_0" index="0" allow="private emergency authority army vip passenger hov taxi bus coach delivery truck trailer motorcycle evehicle custom1 custom2" speed="31.29" length="0.29" shape="4958.15,3818.56 4957.91,3818.59"/>
        <lane id=":gneJ8_0_1" index="1" allow="private emergency authority army vip passenger hov taxi bus coach delivery truck trailer motorcycle evehicle custom1 custom2" speed="31.29" length="0.29" shape="4957.70,3815.39 4957.42,3815.43"/>
        <lane id=":gneJ8_0_2" index="2" allow="private emergency authority army vip passenger hov taxi bus coach delivery truck trailer motorcycle evehicle custom1 custom2" speed="31.29" length="0.29" shape="4957.26,3812.22 4956.93,3812.27"/>
    </edge>

    <edge id="124433709.427" from="gneJ39" to="gneJ18" name="Walter P Reuther Freeway" priority="16" type="highway.motorway" spreadType="center" shape="7828.52,3609.94 7806.03,3576.12 7766.31,3532.96 7699.71,3499.96 7572.62,3476.31 7372.49,3472.51 7324.05,3473.76 7305.15,3473.07">
        <lane id="124433709.427_0" index="0" allow="private emergency authority army vip passenger hov taxi bus coach delivery truck trailer motorcycle evehicle custom1 custom2" speed="31.29" length="530.01" shape="7828.52,3609.94 7806.03,3576.12 7766.31,3532.96 7699.71,3499.96 7572.62,3476.31 7372.49,3472.51 7345.52,3473.21">
            <param key="origId" value="124433709"/>
        </lane>
    </edge>
    <edge id="124433730#0" from="gneJ8" to="gneJ4" priority="13" type="highway.motorway" spreadType="center">
        <lane id="124433730#0_0" index="0" allow="private emergency authority army vip passenger hov taxi bus coach delivery truck trailer motorcycle evehicle custom1 custom2" speed="31.29" length="230.16" shape="4957.91,3818.59 4730.45,3853.77">
            <param key="origId" value="124433730"/>
        </lane>
        <lane id="124433730#0_1" index="1" allow="private emergency authority army vip passenger hov taxi bus coach delivery truck trailer motorcycle evehicle custom1 custom2" speed="31.29" length="230.16" shape="4957.42,3815.43 4729.96,3850.61">
            <param key="origId" value="124433730"/>
        </lane>
        <lane id="124433730#0_2" index="2" allow="private emergency authority army vip passenger hov taxi bus coach delivery truck trailer motorcycle evehicle custom1 custom2" speed="31.29" length="230.16" shape="4956.93,3812.27 4729.47,3847.44">
            <param key="origId" value="124433730"/>
        </lane>
    </edge>
    <edge id="124433730#1" from="gneJ3" to="62339796" priority="13" type="highway.motorway" spreadType="center">
        <lane id="124433730#1_0" index="0" allow="private emergency authority army vip passenger hov taxi bus coach delivery truck trailer motorcycle evehicle custom1 custom2" speed="31.29" length="548.47" shape="4631.91,3869.04 4088.73,3945.07">
            <param key="origId" value="124433730"/>
        </lane>
        <lane id="124433730#1_1" index="1" allow="private emergency authority army vip passenger hov taxi bus coach delivery truck trailer motorcycle evehicle custom1 custom2" speed="31.29" length="548.47" shape="4631.46,3865.87 4088.28,3941.90">
            <param key="origId" value="124433730"/>
        </lane>
        <lane id="124433730#1_2" index="2" allow="private emergency authority army vip passenger hov taxi bus coach delivery truck trailer motorcycle evehicle custom1 custom2" speed="31.29" length="548.47" shape="4631.02,3862.70 4087.84,3938.74">
            <param key="origId" value="124433730"/>
        </lane>
    </edge>
    <edge id="124433730#1-AddedOnRampEdge" from="gneJ4" to="gneJ3" priority="13" type="highway.motorway" spreadType="center" shape="4729.81,3850.63 4643.36,3864.15 4631.61,3865.85">
        <lane id="124433730#1-AddedOnRampEdge_0" index="0" allow="private emergency authority army vip passenger hov taxi bus coach delivery truck trailer motorcycle evehicle custom1 custom2" speed="31.29" length="99.07" acceleration="1" shape="4730.16,3853.81 4643.84,3867.31 4632.22,3869.00">
            <param key="origId" value="124433730"/>
        </lane>
        <lane id="124433730#1-AddedOnRampEdge_1" index="1" allow="private emergency authority army vip passenger hov taxi bus coach delivery truck trailer motorcycle evehicle custom1 custom2" speed="31.29" length="99.07" shape="4729.66,3850.65 4643.36,3864.15 4631.76,3865.83">
            <param key="origId" value="124433730"/>
        </lane>
        <lane id="124433730#1-AddedOnRampEdge_2" index="2" allow="private emergency authority army vip passenger hov taxi bus coach delivery truck trailer motorcycle evehicle custom1 custom2" speed="31.29" length="99.07" shape="4729.17,3847.49 4642.88,3860.99 4631.30,3862.66">
            <param key="origId" value="124433730"/>
        </lane>
    </edge>
    <edge id="124433730#2" from="gneJ1" to="4836913481" priority="13" type="highway.motorway" spreadType="center">
        <lane id="124433730#2_0" index="0" allow="private emergency authority army vip passenger hov taxi bus coach delivery truck trailer motorcycle evehicle custom1 custom2" speed="31.29" length="200.16" shape="3999.55,3958.91 3802.06,3991.48">
            <param key="origId" value="124433730 22723378 8708084"/>
        </lane>
        <lane id="124433730#2_1" index="1" allow="private emergency authority army vip passenger hov taxi bus coach delivery truck trailer motorcycle evehicle custom1 custom2" speed="31.29" length="200.16" shape="3999.03,3955.75 3801.54,3988.32">
            <param key="origId" value="124433730 22723378 8708084"/>
        </lane>
        <lane id="124433730#2_2" index="2" allow="private emergency authority army vip passenger hov taxi bus coach delivery truck trailer motorcycle evehicle custom1 custom2" speed="31.29" length="200.16" shape="3998.51,3952.60 3801.02,3985.16">
            <param key="origId" value="124433730 22723378 8708084"/>
        </lane>
    </edge>
    <edge id="124433730#2-AddedOnRampEdge" from="62339796" to="gneJ1" priority="13" type="highway.motorway" spreadType="center" shape="4067.24,3946.46 3999.18,3955.73">
        <lane id="124433730#2-AddedOnRampEdge_0" index="0" allow="private emergency authority army vip passenger hov taxi bus coach delivery truck trailer motorcycle evehicle custom1 custom2" speed="31.29" length="68.54" acceleration="1" shape="4067.67,3949.63 3999.76,3958.88">
            <param key="origId" value="124433730 22723378 8708084"/>
        </lane>
        <lane id="124433730#2-AddedOnRampEdge_1" index="1" allow="private emergency authority army vip passenger hov taxi bus coach delivery truck trailer motorcycle evehicle custom1 custom2" speed="31.29" length="68.54" shape="4067.24,3946.46 3999.33,3955.71">
            <param key="origId" value="124433730 22723378 8708084"/>
        </lane>
        <lane id="124433730#2-AddedOnRampEdge_2" index="2" allow="private emergency authority army vip passenger hov taxi bus coach delivery truck trailer motorcycle evehicle custom1 custom2" speed="31.29" length="68.54" shape="4066.81,3943.29 3998.90,3952.54">
            <param key="origId" value="124433730 22723378 8708084"/>
        </lane>
    </edge>
    <edge id="178253095" from="62159142" to="62339796" priority="16" type="highway.motorway_link" spreadType="center" shape="4716.22,4001.51 4612.40,3958.85 4587.36,3948.64 4544.73,3934.13 4495.38,3922.82 4454.16,3918.26 4408.94,3916.32 4365.24,3917.92 4094.33,3949.57 4067.00,3947.37">
        <lane id="178253095_0" index="0" allow="private emergency authority army vip passenger hov taxi bus coach delivery truck trailer motorcycle evehicle custom1 custom2" speed="22.22" length="643.66" shape="4716.22,4001.51 4612.40,3958.85 4587.36,3948.64 4544.73,3934.13 4495.38,3922.82 4454.16,3918.26 4408.94,3916.32 4365.24,3917.92 4094.33,3949.57 4088.85,3949.13">
            <param key="origId" value="178253095"/>
        </lane>
    </edge>
    <edge id="22723058#0" from="gneJ29" to="62290112" priority="13" type="highway.motorway" spreadType="center">
        <lane id="22723058#0_0" index="0" allow="private emergency authority army vip passenger hov taxi bus coach delivery truck trailer motorcycle evehicle custom1 custom2" speed="31.29" length="51.65" shape="7993.52,3130.85 7952.21,3161.85">
            <param key="origId" value="22723058"/>
        </lane>
        <lane id="22723058#0_1" index="1" allow="private emergency authority army vip passenger hov taxi bus coach delivery truck trailer motorcycle evehicle custom1 custom2" speed="31.29" length="51.65" shape="7991.60,3128.29 7950.28,3159.29">
            <param key="origId" value="22723058"/>
        </lane>
        <lane id="22723058#0_2" index="2" allow="private emergency authority army vip passenger hov taxi bus coach delivery truck trailer motorcycle evehicle custom1 custom2" speed="31.29" length="51.65" shape="7989.68,3125.73 7948.36,3156.73">